Circuit: * C:\users\alecce\Scrivania\Test_TiePie\repo\pyTiePie\utils\Spice_Circuit\RC_Difference_LTSpice.asc

.OP point found by inspection.

Date: Thu Jun 09 16:47:51 2022
Total elapsed time: 0.072 seconds.

tnom = 27
temp = 27
method = modified trap
totiter = 2092
traniter = 2092
tranpoints = 1047
accept = 1047
rejected = 0
matrix size = 4
fillins = 0
solver = Normal
Matrix Compiler1: 136 bytes object code size  0.1/0.1/[0.1]
Matrix Compiler2: 230 bytes object code size  0.1/0.1/[0.1]

