Circuit: * C:\users\alecce\Scrivania\Test_TiePie\repo\pyTiePie\utils\Spice_Circuit\RC_Difference_LTSpice.asc

.OP point found by inspection.
.step c=1e-012 dc=100
.step c=2e-012 dc=100
.step c=3e-012 dc=100
.step c=4e-012 dc=100
.step c=5e-012 dc=100
.step c=6e-012 dc=100
.step c=7e-012 dc=100
.step c=8e-012 dc=100
.step c=9e-012 dc=100
.step c=1e-011 dc=100
.step c=1e-012 dc=200
.step c=2e-012 dc=200
.step c=3e-012 dc=200
.step c=4e-012 dc=200
.step c=5e-012 dc=200
.step c=6e-012 dc=200
.step c=7e-012 dc=200
.step c=8e-012 dc=200
.step c=9e-012 dc=200
.step c=1e-011 dc=200
.step c=1e-012 dc=300
.step c=2e-012 dc=300
.step c=3e-012 dc=300
.step c=4e-012 dc=300
.step c=5e-012 dc=300
.step c=6e-012 dc=300
.step c=7e-012 dc=300
.step c=8e-012 dc=300
.step c=9e-012 dc=300
.step c=1e-011 dc=300
.step c=1e-012 dc=400
.step c=2e-012 dc=400
.step c=3e-012 dc=400
.step c=4e-012 dc=400
.step c=5e-012 dc=400
.step c=6e-012 dc=400
.step c=7e-012 dc=400
.step c=8e-012 dc=400
.step c=9e-012 dc=400
.step c=1e-011 dc=400
.step c=1e-012 dc=500
.step c=2e-012 dc=500
.step c=3e-012 dc=500
.step c=4e-012 dc=500
.step c=5e-012 dc=500
.step c=6e-012 dc=500
.step c=7e-012 dc=500
.step c=8e-012 dc=500
.step c=9e-012 dc=500
.step c=1e-011 dc=500
.step c=1e-012 dc=600
.step c=2e-012 dc=600
.step c=3e-012 dc=600
.step c=4e-012 dc=600
.step c=5e-012 dc=600
.step c=6e-012 dc=600
.step c=7e-012 dc=600
.step c=8e-012 dc=600
.step c=9e-012 dc=600
.step c=1e-011 dc=600
.step c=1e-012 dc=700
.step c=2e-012 dc=700
.step c=3e-012 dc=700
.step c=4e-012 dc=700
.step c=5e-012 dc=700
.step c=6e-012 dc=700
.step c=7e-012 dc=700
.step c=8e-012 dc=700
.step c=9e-012 dc=700
.step c=1e-011 dc=700
.step c=1e-012 dc=800
.step c=2e-012 dc=800
.step c=3e-012 dc=800
.step c=4e-012 dc=800
.step c=5e-012 dc=800
.step c=6e-012 dc=800
.step c=7e-012 dc=800
.step c=8e-012 dc=800
.step c=9e-012 dc=800
.step c=1e-011 dc=800
.step c=1e-012 dc=900
.step c=2e-012 dc=900
.step c=3e-012 dc=900
.step c=4e-012 dc=900
.step c=5e-012 dc=900
.step c=6e-012 dc=900
.step c=7e-012 dc=900
.step c=8e-012 dc=900
.step c=9e-012 dc=900
.step c=1e-011 dc=900
.step c=1e-012 dc=1000
.step c=2e-012 dc=1000
.step c=3e-012 dc=1000
.step c=4e-012 dc=1000
.step c=5e-012 dc=1000
.step c=6e-012 dc=1000
.step c=7e-012 dc=1000
.step c=8e-012 dc=1000
.step c=9e-012 dc=1000
.step c=1e-011 dc=1000


Measurement: vmax
  step	MAX(v(out))	FROM	TO
     1	7.06538	1e-005	0.0001
     2	8.93606	1e-005	0.0001
     3	9.47814	1e-005	0.0001
     4	9.69225	1e-005	0.0001
     5	9.79579	1e-005	0.0001
     6	9.84798	1e-005	0.0001
     7	9.8853	1e-005	0.0001
     8	9.91147	1e-005	0.0001
     9	9.92436	1e-005	0.0001
    10	9.93117	1e-005	0.0001
    11	7.06538	1e-005	0.0001
    12	8.93606	1e-005	0.0001
    13	9.47814	1e-005	0.0001
    14	9.69225	1e-005	0.0001
    15	9.79579	1e-005	0.0001
    16	9.84798	1e-005	0.0001
    17	9.8853	1e-005	0.0001
    18	9.91147	1e-005	0.0001
    19	9.92436	1e-005	0.0001
    20	9.93117	1e-005	0.0001
    21	7.06538	1e-005	0.0001
    22	8.93606	1e-005	0.0001
    23	9.47814	1e-005	0.0001
    24	9.69225	1e-005	0.0001
    25	9.79579	1e-005	0.0001
    26	9.84798	1e-005	0.0001
    27	9.8853	1e-005	0.0001
    28	9.91147	1e-005	0.0001
    29	9.92436	1e-005	0.0001
    30	9.93117	1e-005	0.0001
    31	7.06538	1e-005	0.0001
    32	8.93606	1e-005	0.0001
    33	9.47814	1e-005	0.0001
    34	9.69225	1e-005	0.0001
    35	9.79579	1e-005	0.0001
    36	9.84798	1e-005	0.0001
    37	9.8853	1e-005	0.0001
    38	9.91147	1e-005	0.0001
    39	9.92436	1e-005	0.0001
    40	9.93117	1e-005	0.0001
    41	7.06538	1e-005	0.0001
    42	8.93606	1e-005	0.0001
    43	9.47814	1e-005	0.0001
    44	9.69225	1e-005	0.0001
    45	9.79579	1e-005	0.0001
    46	9.84798	1e-005	0.0001
    47	9.8853	1e-005	0.0001
    48	9.91147	1e-005	0.0001
    49	9.92436	1e-005	0.0001
    50	9.93117	1e-005	0.0001
    51	7.06538	1e-005	0.0001
    52	8.93606	1e-005	0.0001
    53	9.47814	1e-005	0.0001
    54	9.69225	1e-005	0.0001
    55	9.79579	1e-005	0.0001
    56	9.84798	1e-005	0.0001
    57	9.8853	1e-005	0.0001
    58	9.91147	1e-005	0.0001
    59	9.92436	1e-005	0.0001
    60	9.93117	1e-005	0.0001
    61	7.06538	1e-005	0.0001
    62	8.93606	1e-005	0.0001
    63	9.47814	1e-005	0.0001
    64	9.69225	1e-005	0.0001
    65	9.79579	1e-005	0.0001
    66	9.84798	1e-005	0.0001
    67	9.8853	1e-005	0.0001
    68	9.91147	1e-005	0.0001
    69	9.92436	1e-005	0.0001
    70	9.93117	1e-005	0.0001
    71	7.06538	1e-005	0.0001
    72	8.93606	1e-005	0.0001
    73	9.47814	1e-005	0.0001
    74	9.69225	1e-005	0.0001
    75	9.79579	1e-005	0.0001
    76	9.84798	1e-005	0.0001
    77	9.8853	1e-005	0.0001
    78	9.91147	1e-005	0.0001
    79	9.92436	1e-005	0.0001
    80	9.93117	1e-005	0.0001
    81	7.06538	1e-005	0.0001
    82	8.93606	1e-005	0.0001
    83	9.47814	1e-005	0.0001
    84	9.69225	1e-005	0.0001
    85	9.79579	1e-005	0.0001
    86	9.84798	1e-005	0.0001
    87	9.8853	1e-005	0.0001
    88	9.91147	1e-005	0.0001
    89	9.92436	1e-005	0.0001
    90	9.93117	1e-005	0.0001
    91	7.06538	1e-005	0.0001
    92	8.93606	1e-005	0.0001
    93	9.47814	1e-005	0.0001
    94	9.69225	1e-005	0.0001
    95	9.79579	1e-005	0.0001
    96	9.84798	1e-005	0.0001
    97	9.8853	1e-005	0.0001
    98	9.91147	1e-005	0.0001
    99	9.92436	1e-005	0.0001
   100	9.93117	1e-005	0.0001

Measurement: vmax2
  step	MAX(v(out2))	FROM	TO
     1	7.10012	1e-005	0.0001
     2	8.95346	1e-005	0.0001
     3	9.48734	1e-005	0.0001
     4	9.69769	1e-005	0.0001
     5	9.79933	1e-005	0.0001
     6	9.85114	1e-005	0.0001
     7	9.88679	1e-005	0.0001
     8	9.9128	1e-005	0.0001
     9	9.92518	1e-005	0.0001
    10	9.93162	1e-005	0.0001
    11	7.08284	1e-005	0.0001
    12	8.94476	1e-005	0.0001
    13	9.48278	1e-005	0.0001
    14	9.695	1e-005	0.0001
    15	9.79758	1e-005	0.0001
    16	9.84957	1e-005	0.0001
    17	9.88605	1e-005	0.0001
    18	9.91214	1e-005	0.0001
    19	9.92478	1e-005	0.0001
    20	9.9314	1e-005	0.0001
    21	7.07704	1e-005	0.0001
    22	8.94188	1e-005	0.0001
    23	9.48124	1e-005	0.0001
    24	9.69409	1e-005	0.0001
    25	9.79699	1e-005	0.0001
    26	9.84904	1e-005	0.0001
    27	9.8858	1e-005	0.0001
    28	9.91192	1e-005	0.0001
    29	9.92464	1e-005	0.0001
    30	9.93133	1e-005	0.0001
    31	7.07413	1e-005	0.0001
    32	8.94043	1e-005	0.0001
    33	9.48047	1e-005	0.0001
    34	9.69363	1e-005	0.0001
    35	9.79669	1e-005	0.0001
    36	9.84878	1e-005	0.0001
    37	9.88568	1e-005	0.0001
    38	9.91181	1e-005	0.0001
    39	9.92457	1e-005	0.0001
    40	9.93129	1e-005	0.0001
    41	7.07239	1e-005	0.0001
    42	8.93956	1e-005	0.0001
    43	9.48001	1e-005	0.0001
    44	9.69336	1e-005	0.0001
    45	9.79651	1e-005	0.0001
    46	9.84862	1e-005	0.0001
    47	9.8856	1e-005	0.0001
    48	9.91174	1e-005	0.0001
    49	9.92453	1e-005	0.0001
    50	9.93126	1e-005	0.0001
    51	7.07122	1e-005	0.0001
    52	8.93898	1e-005	0.0001
    53	9.47969	1e-005	0.0001
    54	9.69318	1e-005	0.0001
    55	9.79639	1e-005	0.0001
    56	9.84851	1e-005	0.0001
    57	9.88555	1e-005	0.0001
    58	9.9117	1e-005	0.0001
    59	9.9245	1e-005	0.0001
    60	9.93125	1e-005	0.0001
    61	7.07039	1e-005	0.0001
    62	8.93856	1e-005	0.0001
    63	9.47947	1e-005	0.0001
    64	9.69304	1e-005	0.0001
    65	9.7963	1e-005	0.0001
    66	9.84843	1e-005	0.0001
    67	9.88552	1e-005	0.0001
    68	9.91166	1e-005	0.0001
    69	9.92448	1e-005	0.0001
    70	9.93124	1e-005	0.0001
    71	7.06976	1e-005	0.0001
    72	8.93825	1e-005	0.0001
    73	9.47931	1e-005	0.0001
    74	9.69295	1e-005	0.0001
    75	9.79624	1e-005	0.0001
    76	9.84838	1e-005	0.0001
    77	9.88549	1e-005	0.0001
    78	9.91164	1e-005	0.0001
    79	9.92447	1e-005	0.0001
    80	9.93123	1e-005	0.0001
    81	7.06928	1e-005	0.0001
    82	8.938	1e-005	0.0001
    83	9.47918	1e-005	0.0001
    84	9.69287	1e-005	0.0001
    85	9.79619	1e-005	0.0001
    86	9.84833	1e-005	0.0001
    87	9.88547	1e-005	0.0001
    88	9.91162	1e-005	0.0001
    89	9.92446	1e-005	0.0001
    90	9.93122	1e-005	0.0001
    91	7.06889	1e-005	0.0001
    92	8.93781	1e-005	0.0001
    93	9.47907	1e-005	0.0001
    94	9.69281	1e-005	0.0001
    95	9.79615	1e-005	0.0001
    96	9.8483	1e-005	0.0001
    97	9.88545	1e-005	0.0001
    98	9.9116	1e-005	0.0001
    99	9.92445	1e-005	0.0001
   100	9.93122	1e-005	0.0001

Measurement: vdiff
  step	vmax2-vmax
     1	0.0347419
     2	0.0174036
     3	0.00920391
     4	0.00544071
     5	0.0035429
     6	0.00315952
     7	0.00149155
     8	0.00133228
     9	0.00082016
    10	0.000442505
    11	0.0174584
    12	0.00870132
    13	0.00464344
    14	0.00274563
    15	0.00178909
    16	0.00159359
    17	0.00075531
    18	0.000674248
    19	0.000415802
    20	0.000226021
    21	0.0116587
    22	0.00581646
    23	0.00310516
    24	0.00183678
    25	0.00119686
    26	0.00106525
    27	0.000505447
    28	0.000451088
    29	0.000278473
    30	0.000152588
    31	0.00875092
    32	0.00436878
    33	0.00233173
    34	0.00137997
    35	0.000898361
    36	0.000800133
    37	0.000380516
    38	0.000339508
    39	0.000208855
    40	0.000114441
    41	0.00700426
    42	0.00349712
    43	0.00186825
    44	0.00110435
    45	0.000720024
    46	0.000640869
    47	0.000304222
    48	0.000270844
    49	0.000166893
    50	9.15527e-005
    51	0.00583887
    52	0.00291634
    53	0.00155735
    54	0.000921249
    55	0.000599861
    56	0.000534058
    57	0.000253677
    58	0.000226974
    59	0.000139236
    60	7.62939e-005
    61	0.00500584
    62	0.00250053
    63	0.00133514
    64	0.000789642
    65	0.00051403
    66	0.000457764
    67	0.000217438
    68	0.00019455
    69	0.000120163
    70	6.58035e-005
    71	0.00438118
    72	0.00218868
    73	0.00116825
    74	0.000691414
    75	0.000451088
    76	0.000400543
    77	0.000190735
    78	0.000169754
    79	0.000104904
    80	5.81741e-005
    81	0.00389481
    82	0.0019455
    83	0.00103855
    84	0.00061512
    85	0.000400543
    86	0.000356674
    87	0.000169754
    88	0.000150681
    89	9.34601e-005
    90	5.14984e-005
    91	0.00350571
    92	0.0017519
    93	0.000935555
    94	0.000554085
    95	0.000360489
    96	0.000320435
    97	0.000152588
    98	0.000136375
    99	8.39233e-005
   100	4.673e-005


Date: Mon Jun 13 14:40:33 2022
Total elapsed time: 2.051 seconds.

tnom = 27
temp = 27
method = modified trap
totiter = 2088
traniter = 2088
tranpoints = 1045
accept = 1045
rejected = 0
matrix size = 6
fillins = 0
solver = Normal
Matrix Compiler1: 182 bytes object code size  0.1/0.1/[0.1]
Matrix Compiler2: 322 bytes object code size  0.1/0.1/[0.1]

