Circuit: * C:\users\alecce\Scrivania\Test_TiePie\repo\pyTiePie\utils\Spice_Circuit\RC_Difference_LTSpice.asc

.OP point found by inspection.

Date: Fri Jun 10 16:55:27 2022
Total elapsed time: 0.059 seconds.

tnom = 27
temp = 27
method = modified trap
totiter = 2092
traniter = 2092
tranpoints = 1047
accept = 1047
rejected = 0
matrix size = 6
fillins = 0
solver = Normal
Matrix Compiler1: 182 bytes object code size  0.2/0.1/[0.1]
Matrix Compiler2: 322 bytes object code size  0.1/0.2/[0.1]

