Circuit: * C:\Users\andry\Desktop\Alecce\repo\pyTiePie\utils\Spice_Circuit\RC_Difference_LTSpice.asc

.OP point found by inspection.

Date: Thu Jun 09 23:32:51 2022
Total elapsed time: 0.032 seconds.

tnom = 27
temp = 27
method = modified trap
totiter = 2092
traniter = 2092
tranpoints = 1047
accept = 1047
rejected = 0
matrix size = 6
fillins = 0
solver = Normal
Matrix Compiler1:      11 opcodes  0.1/[0.0]/0.0
Matrix Compiler2: 322 bytes object code size  0.1/0.1/[0.0]

